<?xml version="1.0" encoding="UTF-8"?>

<!-- generated on 2024-12-28 12:08:42.646125 by osmWebWizard.py v1_20_0+0002-343658e7c64
<configuration>
    <net-file value="C:\Users\salar\sumo-1.20.0\tools\2024-12-28-12-08-37\osm.net.xml.gz"/>
    <output-trip-file value="C:\Users\salar\sumo-1.20.0\tools\2024-12-28-12-08-37\osm.passenger.trips.xml"/>
    <route-file value="C:\Users\salar\sumo-1.20.0\tools\2024-12-28-12-08-37\osm.passenger.rou.xml"/>
    <prefix value="veh"/>
    <trip-attributes value="departLane=&quot;best&quot;"/>
    <fringe-start-attributes value="departSpeed=&quot;max&quot;"/>
    <vehicle-class value="passenger"/>
    <lanes value="True"/>
    <fringe-factor value="5"/>
    <allow-fringe.min-length value="1000.0"/>
    <via-edge-types value="highway.motorway,highway.motorway_link,highway.trunk_link,highway.primary_link,highway.secondary_link,highway.tertiary_link"/>
    <min-distance value="300.0"/>
    <min-distance.fringe value="10.0"/>
    <remove-loops value="True"/>
    <validate value="True"/>
    <insertion-density value="1000.0"/>
</configuration>
-->

<!-- generated on 2024-12-28 12:08:41 by Eclipse SUMO duarouter Version 1.20.0
<configuration xmlns:xsi="http://www.w3.org/2001/XMLSchema-instance" xsi:noNamespaceSchemaLocation="http://sumo.dlr.de/xsd/duarouterConfiguration.xsd">

    <input>
        <net-file value="C:\Users\salar\sumo-1.20.0\tools\2024-12-28-12-08-37\osm.net.xml.gz"/>
        <route-files value="C:\Users\salar\sumo-1.20.0\tools\2024-12-28-12-08-37\osm.passenger.trips.xml"/>
    </input>

    <output>
        <output-file value="C:\Users\salar\sumo-1.20.0\tools\2024-12-28-12-08-37\osm.passenger.trips.xml.tmp"/>
        <alternatives-output value="NUL"/>
        <write-trips value="true"/>
    </output>

    <processing>
        <remove-loops value="true"/>
    </processing>

    <time>
        <begin value="0.0"/>
        <end value="3600.0"/>
    </time>

    <report>
        <no-warnings value="true"/>
        <ignore-errors value="true"/>
        <no-step-log value="true"/>
    </report>

</configuration>
-->

<routes xmlns:xsi="http://www.w3.org/2001/XMLSchema-instance" xsi:noNamespaceSchemaLocation="http://sumo.dlr.de/xsd/routes_file.xsd">
    <vType id="veh_passenger" vClass="passenger"/>
    <trip id="veh0" type="veh_passenger" depart="0.00" departLane="best" from="539494066#1" to="20104969"/>
    <trip id="veh1" type="veh_passenger" depart="0.18" departLane="best" departSpeed="max" from="160143045#0" to="-659999062#0"/>
    <trip id="veh7" type="veh_passenger" depart="1.26" departLane="best" from="18357538#1" to="-358551802"/>
    <trip id="veh11" type="veh_passenger" depart="1.97" departLane="best" from="19885776#2" to="23038007"/>
    <trip id="veh15" type="veh_passenger" depart="2.69" departLane="best" from="19885776#1" to="659999060#3"/>
    <trip id="veh16" type="veh_passenger" depart="2.87" departLane="best" from="1158510270#1-AddedOnRampEdge" to="721102898#1"/>
    <trip id="veh18" type="veh_passenger" depart="3.23" departLane="best" departSpeed="max" from="9895204" to="539494071#0"/>
    <trip id="veh19" type="veh_passenger" depart="3.41" departLane="best" departSpeed="max" from="22675632" to="570173558#3"/>
    <trip id="veh23" type="veh_passenger" depart="4.12" departLane="best" from="1158510270#1-AddedOnRampEdge" to="-721102887"/>
    <trip id="veh25" type="veh_passenger" depart="4.48" departLane="best" departSpeed="max" from="19894966#0" to="-659999061"/>
    <trip id="veh26" type="veh_passenger" depart="4.66" departLane="best" departSpeed="max" from="9895204" to="22675638"/>
    <trip id="veh29" type="veh_passenger" depart="5.20" departLane="best" departSpeed="max" from="9895204" to="-22733585#0"/>
    <trip id="veh30" type="veh_passenger" depart="5.38" departLane="best" from="721119552#4" to="659999070"/>
    <trip id="veh33" type="veh_passenger" depart="5.92" departLane="best" departSpeed="max" from="20481204" to="-721102899#1"/>
    <trip id="veh34" type="veh_passenger" depart="6.10" departLane="best" from="682504377#2" to="-721102899#0"/>
    <trip id="veh35" type="veh_passenger" depart="6.28" departLane="best" departSpeed="max" from="22049887" to="-556798194#3"/>
    <trip id="veh36" type="veh_passenger" depart="6.46" departLane="best" departSpeed="max" from="721102888" to="659999070"/>
    <trip id="veh37" type="veh_passenger" depart="6.64" departLane="best" departSpeed="max" from="160143045#0" to="539494071#0"/>
    <trip id="veh39" type="veh_passenger" depart="6.99" departLane="best" from="570173565#2" to="22742752"/>
    <trip id="veh42" type="veh_passenger" depart="7.53" departLane="best" departSpeed="max" from="-17392150#1" to="721102898#1"/>
    <trip id="veh43" type="veh_passenger" depart="7.71" departLane="best" from="682504377#2" to="659999067#1"/>
    <trip id="veh44" type="veh_passenger" depart="7.89" departLane="best" from="682504377#2" to="721102898#1"/>
    <trip id="veh47" type="veh_passenger" depart="8.43" departLane="best" from="570173565#2-AddedOnRampEdge" to="-22742746"/>
    <trip id="veh48" type="veh_passenger" depart="8.61" departLane="best" departSpeed="max" from="20481261" to="22742752"/>
    <trip id="veh49" type="veh_passenger" depart="8.79" departLane="best" from="1158510270#1-AddedOnRampEdge" to="659999074"/>
    <trip id="veh50" type="veh_passenger" depart="8.97" departLane="best" from="19894966#3" to="659999060#3"/>
    <trip id="veh51" type="veh_passenger" depart="9.15" departLane="best" departSpeed="max" from="22675632" to="570173565#1"/>
    <trip id="veh52" type="veh_passenger" depart="9.33" departLane="best" departSpeed="max" from="9895204" to="539494071#1-AddedOnRampEdge"/>
    <trip id="veh53" type="veh_passenger" depart="9.51" departLane="best" from="19894966#7" to="22675638"/>
    <trip id="veh54" type="veh_passenger" depart="9.68" departLane="best" from="539494066#2" to="539494066#10"/>
    <trip id="veh57" type="veh_passenger" depart="10.22" departLane="best" departSpeed="max" from="-659999141" to="-22049887"/>
    <trip id="veh61" type="veh_passenger" depart="10.94" departLane="best" departSpeed="max" from="20481261" to="659999060#6"/>
    <trip id="veh62" type="veh_passenger" depart="11.12" departLane="best" from="19894966#3" to="22049572#3"/>
    <trip id="veh63" type="veh_passenger" depart="11.30" departLane="best" departSpeed="max" from="19894966#0" to="17392150#1"/>
    <trip id="veh64" type="veh_passenger" depart="11.48" departLane="best" departSpeed="max" from="-659999141" to="-721102887"/>
    <trip id="veh67" type="veh_passenger" depart="12.02" departLane="best" from="19894966#7" to="659999070"/>
    <trip id="veh69" type="veh_passenger" depart="12.37" departLane="best" departSpeed="max" from="9895204" to="-659999068"/>
    <trip id="veh70" type="veh_passenger" depart="12.55" departLane="best" from="721119552#4" to="721102898#1"/>
    <trip id="veh72" type="veh_passenger" depart="12.91" departLane="best" from="-22049572#2" to="659999060#4"/>
    <trip id="veh73" type="veh_passenger" depart="13.09" departLane="best" from="1158510270#1-AddedOnRampEdge" to="659999060#6"/>
    <trip id="veh74" type="veh_passenger" depart="13.27" departLane="best" departSpeed="max" from="20481204" to="19894966#5"/>
    <trip id="veh75" type="veh_passenger" depart="13.45" departLane="best" departSpeed="max" from="22675632" to="570173558#5"/>
    <trip id="veh77" type="veh_passenger" depart="13.81" departLane="best" departSpeed="max" from="22675632" to="626521708"/>
    <trip id="veh78" type="veh_passenger" depart="13.99" departLane="best" from="-22050574" to="539494066#1"/>
    <trip id="veh79" type="veh_passenger" depart="14.17" departLane="best" departSpeed="max" from="22049887" to="659999069#1"/>
    <trip id="veh80" type="veh_passenger" depart="14.35" departLane="best" from="682504377#2-AddedOnRampEdge" to="-721102887"/>
    <trip id="veh82" type="veh_passenger" depart="14.71" departLane="best" from="19894966#3" to="539494066#1"/>
    <trip id="veh83" type="veh_passenger" depart="14.89" departLane="best" from="22050574" to="721102898#1"/>
    <trip id="veh87" type="veh_passenger" depart="15.60" departLane="best" from="160143045#3" to="-659999057"/>
    <trip id="veh89" type="veh_passenger" depart="15.96" departLane="best" departSpeed="max" from="9895204" to="539493797#2"/>
    <trip id="veh91" type="veh_passenger" depart="16.32" departLane="best" from="1158510270#1-AddedOnRampEdge" to="721102898#1"/>
    <trip id="veh92" type="veh_passenger" depart="16.50" departLane="best" from="682504377#2" to="659999074"/>
    <trip id="veh93" type="veh_passenger" depart="16.68" departLane="best" from="19885776#1" to="-358551802"/>
    <trip id="veh97" type="veh_passenger" depart="17.40" departLane="best" from="18357538#0" to="721102898#1"/>
    <trip id="veh100" type="veh_passenger" depart="17.93" departLane="best" departSpeed="max" from="160143045#0" to="539494066#2"/>
    <trip id="veh101" type="veh_passenger" depart="18.11" departLane="best" from="556798194#0" to="659999060#1"/>
    <trip id="veh102" type="veh_passenger" depart="18.29" departLane="best" from="539493797#4" to="-721102899#0"/>
    <trip id="veh103" type="veh_passenger" depart="18.47" departLane="best" from="-22049572#3" to="682504377#2-AddedOnRampEdge"/>
    <trip id="veh106" type="veh_passenger" depart="19.01" departLane="best" from="539493797#4" to="-721102899#0"/>
    <trip id="veh110" type="veh_passenger" depart="19.73" departLane="best" departSpeed="max" from="715539434" to="659999060#3"/>
    <trip id="veh111" type="veh_passenger" depart="19.91" departLane="best" from="10800565" to="-22050574"/>
    <trip id="veh112" type="veh_passenger" depart="20.09" departLane="best" departSpeed="max" from="19894966#0" to="539494066#7"/>
    <trip id="veh114" type="veh_passenger" depart="20.45" departLane="best" departSpeed="max" from="-17392150#1" to="570173565#2"/>
    <trip id="veh115" type="veh_passenger" depart="20.62" departLane="best" from="18357538#1" to="721102898#1"/>
    <trip id="veh118" type="veh_passenger" depart="21.16" departLane="best" from="682504377#1" to="659999070"/>
    <trip id="veh119" type="veh_passenger" depart="21.34" departLane="best" departSpeed="max" from="20481204" to="1158510270#1-AddedOnRampEdge"/>
    <trip id="veh121" type="veh_passenger" depart="21.70" departLane="best" from="721119552#5" to="22742752"/>
    <trip id="veh122" type="veh_passenger" depart="21.88" departLane="best" from="721119552#0" to="-22733581"/>
    <trip id="veh123" type="veh_passenger" depart="22.06" departLane="best" from="539493797#4" to="-721102899#1"/>
    <trip id="veh126" type="veh_passenger" depart="22.60" departLane="best" departSpeed="max" from="19894966#0" to="539493797#4"/>
    <trip id="veh127" type="veh_passenger" depart="22.78" departLane="best" from="19894966#7" to="570173558#5"/>
    <trip id="veh129" type="veh_passenger" depart="23.14" departLane="best" departSpeed="max" from="22675632" to="570173558#5"/>
    <trip id="veh130" type="veh_passenger" depart="23.31" departLane="best" from="19885776#0" to="22049572#3"/>
    <trip id="veh131" type="veh_passenger" depart="23.49" departLane="best" from="160143045#2" to="659999069#1"/>
    <trip id="veh132" type="veh_passenger" depart="23.67" departLane="best" from="556798194#1" to="1158510270#1"/>
    <trip id="veh133" type="veh_passenger" depart="23.85" departLane="best" from="160143045#1" to="19894966#2"/>
    <trip id="veh134" type="veh_passenger" depart="24.03" departLane="best" departSpeed="max" from="19894966#0" to="1158510270#0"/>
    <trip id="veh135" type="veh_passenger" depart="24.21" departLane="best" departSpeed="max" from="715539434" to="539494066#6"/>
    <trip id="veh136" type="veh_passenger" depart="24.39" departLane="best" departSpeed="max" from="160143045#0" to="22742752"/>
    <trip id="veh144" type="veh_passenger" depart="25.83" departLane="best" departSpeed="max" from="22049887" to="-659999069#0"/>
    <trip id="veh147" type="veh_passenger" depart="26.36" departLane="best" from="10800565" to="659999069#1"/>
    <trip id="veh148" type="veh_passenger" depart="26.54" departLane="best" departSpeed="max" from="20481204" to="659999062#1"/>
    <trip id="veh151" type="veh_passenger" depart="27.08" departLane="best" from="556798194#1" to="22675638"/>
    <trip id="veh153" type="veh_passenger" depart="27.44" departLane="best" departSpeed="max" from="715539434" to="570173565#2-AddedOnRampEdge"/>
    <trip id="veh154" type="veh_passenger" depart="27.62" departLane="best" departSpeed="max" from="20481261" to="-721102887"/>
    <trip id="veh155" type="veh_passenger" depart="27.80" departLane="best" from="10800565" to="539494071#0"/>
    <trip id="veh156" type="veh_passenger" depart="27.98" departLane="best" from="570173565#2-AddedOnRampEdge" to="-22733568#1"/>
    <trip id="veh159" type="veh_passenger" depart="28.52" departLane="best" departSpeed="max" from="22675632" to="-22742746"/>
    <trip id="veh161" type="veh_passenger" depart="28.87" departLane="best" from="539494071#1-AddedOnRampEdge" to="22049572#1"/>
    <trip id="veh162" type="veh_passenger" depart="29.05" departLane="best" departSpeed="max" from="19894966#0" to="22742752"/>
    <trip id="veh163" type="veh_passenger" depart="29.23" departLane="best" from="19894966#2" to="659999060#2"/>
    <trip id="veh164" type="veh_passenger" depart="29.41" departLane="best" from="19894966#3" to="682504377#2-AddedOnRampEdge"/>
    <trip id="veh165" type="veh_passenger" depart="29.59" departLane="best" from="19885662" to="-659999057"/>
    <trip id="veh166" type="veh_passenger" depart="29.77" departLane="best" departSpeed="max" from="-659999141" to="-721102899#1"/>
    <trip id="veh167" type="veh_passenger" depart="29.95" departLane="best" from="19894966#3" to="570173565#2-AddedOnRampEdge"/>
    <trip id="veh168" type="veh_passenger" depart="30.13" departLane="best" departSpeed="max" from="22675632" to="539494066#2"/>
    <trip id="veh170" type="veh_passenger" depart="30.49" departLane="best" departSpeed="max" from="19894966#0" to="-358551802"/>
    <trip id="veh171" type="veh_passenger" depart="30.67" departLane="best" departSpeed="max" from="20481261" to="-22742746"/>
    <trip id="veh172" type="veh_passenger" depart="30.85" departLane="best" from="539493797#3" to="20104969"/>
    <trip id="veh173" type="veh_passenger" depart="31.03" departLane="best" departSpeed="max" from="19894966#0" to="539493797#2"/>
    <trip id="veh178" type="veh_passenger" depart="31.92" departLane="best" from="1158510270#0" to="-22049887"/>
    <trip id="veh179" type="veh_passenger" depart="32.10" departLane="best" departSpeed="max" from="-17392150#1" to="22742752"/>
    <trip id="veh180" type="veh_passenger" depart="32.28" departLane="best" departSpeed="max" from="9895204" to="17392150#1"/>
    <trip id="veh181" type="veh_passenger" depart="32.46" departLane="best" departSpeed="max" from="-17392150#1" to="23038007"/>
    <trip id="veh183" type="veh_passenger" depart="32.82" departLane="best" from="570173558#4" to="-22733581"/>
    <trip id="veh185" type="veh_passenger" depart="33.18" departLane="best" from="160143045#2" to="570173558#2"/>
    <trip id="veh186" type="veh_passenger" depart="33.36" departLane="best" from="539494071#1-AddedOnRampEdge" to="-22049887"/>
    <trip id="veh187" type="veh_passenger" depart="33.54" departLane="best" from="556798194#2" to="659999060#4"/>
    <trip id="veh188" type="veh_passenger" depart="33.72" departLane="best" departSpeed="max" from="22049887" to="17392150#1"/>
    <trip id="veh189" type="veh_passenger" depart="33.90" departLane="best" from="539493797#4" to="659999067#1"/>
    <trip id="veh190" type="veh_passenger" depart="34.08" departLane="best" from="1158510270#1-AddedOnRampEdge" to="659999062#3"/>
    <trip id="veh191" type="veh_passenger" depart="34.25" departLane="best" departSpeed="max" from="22675632" to="-22052649"/>
    <trip id="veh192" type="veh_passenger" depart="34.43" departLane="best" from="1158510270#1-AddedOnRampEdge" to="659999069#1"/>
    <trip id="veh194" type="veh_passenger" depart="34.79" departLane="best" from="682504377#2-AddedOnRampEdge" to="-659999069#0"/>
    <trip id="veh195" type="veh_passenger" depart="34.97" departLane="best" departSpeed="max" from="20481261" to="539494066#4"/>
    <trip id="veh197" type="veh_passenger" depart="35.33" departLane="best" from="539494066#2" to="659999074"/>
    <trip id="veh199" type="veh_passenger" depart="35.69" departLane="best" from="-17392150#0" to="721102898#1"/>
    <trip id="veh200" type="veh_passenger" depart="35.87" departLane="best" from="-22049572#3" to="-659999059"/>
    <trip id="veh202" type="veh_passenger" depart="36.23" departLane="best" departSpeed="max" from="22049887" to="659999060#6"/>
    <trip id="veh205" type="veh_passenger" depart="36.77" departLane="best" departSpeed="max" from="22675632" to="19894966#6"/>
    <trip id="veh207" type="veh_passenger" depart="37.12" departLane="best" from="19894966#7" to="-22733585#1"/>
    <trip id="veh209" type="veh_passenger" depart="37.48" departLane="best" departSpeed="max" from="22675632" to="659999060#0"/>
    <trip id="veh210" type="veh_passenger" depart="37.66" departLane="best" from="22049572#1" to="570173558#5"/>
    <trip id="veh211" type="veh_passenger" depart="37.84" departLane="best" from="721119552#5" to="22733581"/>
    <trip id="veh214" type="veh_passenger" depart="38.38" departLane="best" from="721119552#4" to="23038007"/>
    <trip id="veh215" type="veh_passenger" depart="38.56" departLane="best" departSpeed="max" from="-659999141" to="22675638"/>
    <trip id="veh216" type="veh_passenger" depart="38.74" departLane="best" departSpeed="max" from="20481261" to="21360746"/>
    <trip id="veh218" type="veh_passenger" depart="39.10" departLane="best" from="721119552#0" to="-22052649"/>
    <trip id="veh221" type="veh_passenger" depart="39.64" departLane="best" from="-22049572#3" to="23038007"/>
    <trip id="veh223" type="veh_passenger" depart="39.99" departLane="best" departSpeed="max" from="9895204" to="-22733585#0"/>
    <trip id="veh224" type="veh_passenger" depart="40.17" departLane="best" from="570173565#2" to="539494066#4"/>
    <trip id="veh225" type="veh_passenger" depart="40.35" departLane="best" from="22050574" to="21360746"/>
    <trip id="veh226" type="veh_passenger" depart="40.53" departLane="best" from="19894966#7" to="659999070"/>
    <trip id="veh227" type="veh_passenger" depart="40.71" departLane="best" departSpeed="max" from="9895204" to="1158510270#1-AddedOnRampEdge"/>
    <trip id="veh233" type="veh_passenger" depart="41.79" departLane="best" from="539494071#1" to="21360746"/>
    <trip id="veh235" type="veh_passenger" depart="42.15" departLane="best" from="539494066#2" to="721102898#1"/>
    <trip id="veh236" type="veh_passenger" depart="42.33" departLane="best" from="19894966#5" to="22742752"/>
    <trip id="veh239" type="veh_passenger" depart="42.86" departLane="best" departSpeed="max" from="160143045#0" to="-22742746"/>
    <trip id="veh241" type="veh_passenger" depart="43.22" departLane="best" from="721119552#0" to="22675638"/>
    <trip id="veh242" type="veh_passenger" depart="43.40" departLane="best" departSpeed="max" from="-21360746" to="1158510270#0"/>
    <trip id="veh243" type="veh_passenger" depart="43.58" departLane="best" from="-17392150#0" to="-721102887"/>
    <trip id="veh246" type="veh_passenger" depart="44.12" departLane="best" from="721119552#0-AddedOffRampEdge" to="804132442"/>
    <trip id="veh248" type="veh_passenger" depart="44.48" departLane="best" departSpeed="max" from="-21360746" to="-659999058"/>
    <trip id="veh249" type="veh_passenger" depart="44.66" departLane="best" departSpeed="max" from="721102888" to="556798194#3"/>
    <trip id="veh251" type="veh_passenger" depart="45.02" departLane="best" from="19885662" to="17392150#0"/>
    <trip id="veh252" type="veh_passenger" depart="45.19" departLane="best" departSpeed="max" from="160143045#0" to="721102898#1"/>
    <trip id="veh254" type="veh_passenger" depart="45.55" departLane="best" departSpeed="max" from="19894966#0" to="22675638"/>
    <trip id="veh255" type="veh_passenger" depart="45.73" departLane="best" departSpeed="max" from="9895204" to="539494071#1-AddedOnRampEdge"/>
    <trip id="veh256" type="veh_passenger" depart="45.91" departLane="best" departSpeed="max" from="22675632" to="19894966#3"/>
    <trip id="veh258" type="veh_passenger" depart="46.27" departLane="best" from="19894966#7" to="539494066#8"/>
    <trip id="veh259" type="veh_passenger" depart="46.45" departLane="best" from="570173565#2" to="659999060#1"/>
    <trip id="veh260" type="veh_passenger" depart="46.63" departLane="best" from="19894966#7" to="570173558#5"/>
    <trip id="veh262" type="veh_passenger" depart="46.99" departLane="best" departSpeed="max" from="22675632" to="-22050046"/>
    <trip id="veh263" type="veh_passenger" depart="47.17" departLane="best" departSpeed="max" from="9895204" to="682504377#3"/>
    <trip id="veh264" type="veh_passenger" depart="47.35" departLane="best" departSpeed="max" from="20481204" to="-22733585#0"/>
    <trip id="veh266" type="veh_passenger" depart="47.71" departLane="best" from="556798194#0" to="22675638"/>
    <trip id="veh267" type="veh_passenger" depart="47.88" departLane="best" departSpeed="max" from="160143045#0" to="-659999068"/>
    <trip id="veh268" type="veh_passenger" depart="48.06" departLane="best" from="721119552#5" to="-659999069#0"/>
    <trip id="veh270" type="veh_passenger" depart="48.42" departLane="best" departSpeed="max" from="721102888" to="22675638"/>
    <trip id="veh271" type="veh_passenger" depart="48.60" departLane="best" from="682504377#2" to="659999070"/>
    <trip id="veh272" type="veh_passenger" depart="48.78" departLane="best" departSpeed="max" from="160143045#0" to="659999060#6"/>
    <trip id="veh273" type="veh_passenger" depart="48.96" departLane="best" from="19894966#2" to="721102898#1"/>
    <trip id="veh274" type="veh_passenger" depart="49.14" departLane="best" departSpeed="max" from="22050046" to="659999067#1"/>
    <trip id="veh275" type="veh_passenger" depart="49.32" departLane="best" departSpeed="max" from="160143045#0" to="1158510270#1"/>
    <trip id="veh277" type="veh_passenger" depart="49.68" departLane="best" from="-22049572#3" to="23038007"/>
    <trip id="veh278" type="veh_passenger" depart="49.86" departLane="best" departSpeed="max" from="22675632" to="17392150#1"/>
    <trip id="veh279" type="veh_passenger" depart="50.04" departLane="best" departSpeed="max" from="22675632" to="22742752"/>
    <trip id="veh283" type="veh_passenger" depart="50.75" departLane="best" from="721119552#5" to="22675638"/>
    <trip id="veh285" type="veh_passenger" depart="51.11" departLane="best" from="682504377#1" to="21360746"/>
    <trip id="veh286" type="veh_passenger" depart="51.29" departLane="best" from="556798194#2" to="19894966#2"/>
    <trip id="veh289" type="veh_passenger" depart="51.83" departLane="best" from="556798194#0" to="-659999059"/>
    <trip id="veh291" type="veh_passenger" depart="52.19" departLane="best" departSpeed="max" from="721102888" to="804132442"/>
    <trip id="veh292" type="veh_passenger" depart="52.37" departLane="best" from="556798194#1" to="539494066#9"/>
    <trip id="veh293" type="veh_passenger" depart="52.55" departLane="best" from="682504377#1" to="21360746"/>
    <trip id="veh294" type="veh_passenger" depart="52.73" departLane="best" from="-22049572#0" to="-659999061"/>
    <trip id="veh301" type="veh_passenger" depart="53.98" departLane="best" from="1158510270#0" to="-721102887"/>
    <trip id="veh302" type="veh_passenger" depart="54.16" departLane="best" departSpeed="max" from="715539434" to="570173558#2"/>
    <trip id="veh304" type="veh_passenger" depart="54.52" departLane="best" from="19894966#7" to="659999069#1"/>
    <trip id="veh307" type="veh_passenger" depart="55.06" departLane="best" departSpeed="max" from="9895204" to="1158510270#0"/>
    <trip id="veh308" type="veh_passenger" depart="55.24" departLane="best" departSpeed="max" from="160143045#0" to="539493797#2"/>
    <trip id="veh310" type="veh_passenger" depart="55.60" departLane="best" from="-22049572#1" to="539494066#4"/>
    <trip id="veh311" type="veh_passenger" depart="55.78" departLane="best" departSpeed="max" from="22049887" to="682504377#2-AddedOnRampEdge"/>
    <trip id="veh312" type="veh_passenger" depart="55.96" departLane="best" departSpeed="max" from="160143045#0" to="659999062#0"/>
    <trip id="veh321" type="veh_passenger" depart="57.57" departLane="best" from="18357538#1" to="-22733581"/>
    <trip id="veh322" type="veh_passenger" depart="57.75" departLane="best" from="539493797#4" to="23038007"/>
    <trip id="veh323" type="veh_passenger" depart="57.93" departLane="best" from="721119552#4" to="659999070"/>
    <trip id="veh324" type="veh_passenger" depart="58.11" departLane="best" from="556798194#2" to="721119552#3"/>
    <trip id="veh325" type="veh_passenger" depart="58.29" departLane="best" from="19885776#0" to="659999060#6"/>
    <trip id="veh326" type="veh_passenger" depart="58.47" departLane="best" departSpeed="max" from="-17392150#1" to="22742752"/>
    <trip id="veh327" type="veh_passenger" depart="58.65" departLane="best" departSpeed="max" from="20481204" to="570173558#1"/>
    <trip id="veh330" type="veh_passenger" depart="59.18" departLane="best" departSpeed="max" from="-17392150#1" to="659999074"/>
    <trip id="veh332" type="veh_passenger" depart="59.54" departLane="best" departSpeed="max" from="160143045#0" to="19894966#2"/>
    <trip id="veh334" type="veh_passenger" depart="59.90" departLane="best" from="160143045#1" to="22675638"/>
    <trip id="veh337" type="veh_passenger" depart="60.44" departLane="best" from="721119552#0-AddedOffRampEdge" to="19894966#5"/>
    <trip id="veh338" type="veh_passenger" depart="60.62" departLane="best" from="19894966#2" to="-22050046"/>
    <trip id="veh340" type="veh_passenger" depart="60.98" departLane="best" from="721119552#0-AddedOffRampEdge" to="659999070"/>
    <trip id="veh341" type="veh_passenger" depart="61.16" departLane="best" from="556798194#1" to="570173558#3"/>
    <trip id="veh342" type="veh_passenger" depart="61.34" departLane="best" departSpeed="max" from="22675632" to="721119552#3"/>
    <trip id="veh348" type="veh_passenger" depart="62.41" departLane="best" from="1158510270#0" to="-556798194#1"/>
    <trip id="veh349" type="veh_passenger" depart="62.59" departLane="best" from="539494066#2" to="20104969"/>
    <trip id="veh356" type="veh_passenger" depart="63.85" departLane="best" from="721119552#3" to="22049572#0"/>
    <trip id="veh357" type="veh_passenger" depart="64.03" departLane="best" from="-22049572#0" to="682504377#1"/>
    <trip id="veh359" type="veh_passenger" depart="64.38" departLane="best" departSpeed="max" from="715539434" to="-22049887"/>
    <trip id="veh362" type="veh_passenger" depart="64.92" departLane="best" from="539493797#4" to="22742752"/>
    <trip id="veh364" type="veh_passenger" depart="65.28" departLane="best" from="539494071#1" to="659999069#1"/>
    <trip id="veh365" type="veh_passenger" depart="65.46" departLane="best" from="556798194#1" to="659999060#4"/>
    <trip id="veh366" type="veh_passenger" depart="65.64" departLane="best" departSpeed="max" from="20481204" to="-659999062#2"/>
    <trip id="veh367" type="veh_passenger" depart="65.82" departLane="best" from="18357538#1" to="21360746"/>
    <trip id="veh368" type="veh_passenger" depart="66.00" departLane="best" from="19894966#2" to="-22050046"/>
    <trip id="veh369" type="veh_passenger" depart="66.18" departLane="best" from="19885776#1" to="23038007"/>
    <trip id="veh371" type="veh_passenger" depart="66.54" departLane="best" from="18357538#0" to="-22733585#1"/>
    <trip id="veh372" type="veh_passenger" depart="66.72" departLane="best" from="19885662-AddedOffRampEdge" to="556798194#2"/>
    <trip id="veh378" type="veh_passenger" depart="67.79" departLane="best" from="19885776#0" to="659999060#0"/>
    <trip id="veh381" type="veh_passenger" depart="68.33" departLane="best" from="539494066#1" to="20104969"/>
    <trip id="veh382" type="veh_passenger" depart="68.51" departLane="best" from="721102896#1" to="659999067#1"/>
    <trip id="veh383" type="veh_passenger" depart="68.69" departLane="best" from="539494071#1" to="1158510270#1-AddedOnRampEdge"/>
    <trip id="veh385" type="veh_passenger" depart="69.05" departLane="best" from="19894966#3" to="17392150#1"/>
    <trip id="veh386" type="veh_passenger" depart="69.23" departLane="best" from="19885776#1" to="570173558#5"/>
    <trip id="veh390" type="veh_passenger" depart="69.94" departLane="best" from="539494066#2" to="-22052649"/>
    <trip id="veh392" type="veh_passenger" depart="70.30" departLane="best" from="19894966#7" to="-22733568#1"/>
    <trip id="veh395" type="veh_passenger" depart="70.84" departLane="best" from="10800565" to="1158510270#1"/>
    <trip id="veh397" type="veh_passenger" depart="71.20" departLane="best" from="10800565" to="570173565#2-AddedOnRampEdge"/>
    <trip id="veh399" type="veh_passenger" depart="71.56" departLane="best" from="539494071#1" to="22675638"/>
    <trip id="veh401" type="veh_passenger" depart="71.92" departLane="best" departSpeed="max" from="-21360746" to="20104969"/>
    <trip id="veh402" type="veh_passenger" depart="72.10" departLane="best" departSpeed="max" from="721102888" to="659999070"/>
    <trip id="veh404" type="veh_passenger" depart="72.45" departLane="best" from="539493797#2" to="659999067#1"/>
    <trip id="veh405" type="veh_passenger" depart="72.63" departLane="best" departSpeed="max" from="19894966#0" to="1158510270#1-AddedOnRampEdge"/>
    <trip id="veh408" type="veh_passenger" depart="73.17" departLane="best" departSpeed="max" from="715539434" to="17392150#1"/>
    <trip id="veh409" type="veh_passenger" depart="73.35" departLane="best" from="556798194#3" to="659999067#1"/>